.model NMOS NMOS (LEVEL=1 TOX=4E-09 VTO=0.48 KP=343E-06
+ LAMBDA=0.11 LD=10E-09 GAMMA=0.3 PHI=0.84 PB=0.9
+ CGBO=3.8E-10 CGDO=3.67E-10 CGSO=3.67E-10 JS=8.36E-06
+ CJ=1.6E-03 CJSW=2.04E-10 MJSW=0.2)

.model PMOS PMOS (LEVEL=1 TOX=4E-09 VTO=0.45 KP=60E-06
+ LAMBDA=0.08 LD=10E-09 GAMMA=0.3 PHI=0.8 PB=0.9
+ CGBO=3.5E-10 CGDO=3.43E-10 CGSO=3.43E-10 JS=4E-07
+ CJ=1.0E-03 CJSW=2.04E-10 MJSW=0.29)
